iidm/iidm-serde/src/test/resources/busBranchExportError.xiidm
<?xml version="1.0" encoding="UTF-8"?>
<iidm:network xmlns:iidm="http://www.powsybl.org/schema/iidm/1_14" id="network_1" caseDate="2023-06-19T08:58:00.000+02:00" forecastDistance="0" sourceFormat="TEST" minimumValidationLevel="STEADY_STATE_HYPOTHESIS">
    <iidm:substation id="substation_1" name="undefined" country="FR">
        <iidm:voltageLevel id="VL1" nominalV="380.0" lowVoltageLimit="380.0" highVoltageLimit="420.0" topologyKind="NODE_BREAKER">
            <iidm:nodeBreakerTopology>
                <iidm:busbarSection id="BBS_1" name="1" node="2"/>
                <iidm:busbarSection id="BBS_2" name="2" node="3"/>
                <iidm:switch id="DL_BREAKER" kind="BREAKER" retained="true" open="true" node1="0" node2="4"/>
                <iidm:switch id="DL_DISCONNECTOR_1" kind="DISCONNECTOR" retained="false" open="true" node1="4" node2="2"/>
                <iidm:switch id="DL_DISCONNECTOR_2" kind="DISCONNECTOR" retained="false" open="true" node1="4" node2="3"/>
                <iidm:switch id="LOAD_BREAKER" kind="BREAKER" retained="true" open="true" node1="1" node2="5"/>
                <iidm:switch id="LOAD_DISCONNECTOR_1" kind="DISCONNECTOR" retained="false" open="true" node1="5" node2="2"/>
                <iidm:switch id="LOAD_DISCONNECTOR_2" kind="DISCONNECTOR" retained="false" open="true" node1="5" node2="3"/>
            </iidm:nodeBreakerTopology>
            <iidm:load id="LOAD" loadType="FICTITIOUS" p0="0.0" q0="0.0" node="1" p="0.0" q="0.0"/>
            <iidm:danglingLine id="DL" p0="0.0" q0="0.0" r="0.5" x="6.0" g="0.0" b="0" node="0" p="0.0" q="0.0"/>
        </iidm:voltageLevel>
        <iidm:voltageLevel id="VL2" nominalV="380.0" lowVoltageLimit="380.0" highVoltageLimit="420.0" topologyKind="NODE_BREAKER">
            <iidm:nodeBreakerTopology>
                <iidm:busbarSection id="BBS_3" name="1" node="2"/>
                <iidm:busbarSection id="BBS_4" name="2" node="3"/>
                <iidm:switch id="DL_BREAKER3" kind="BREAKER" retained="true" open="false" node1="0" node2="4"/>
                <iidm:switch id="DL_DISCONNECTOR_3" kind="DISCONNECTOR" retained="false" open="true" node1="4" node2="2"/>
                <iidm:switch id="DL_DISCONNECTOR_4" kind="DISCONNECTOR" retained="false" open="true" node1="4" node2="3"/>
                <iidm:switch id="LOAD_BREAKER2" kind="BREAKER" retained="true" open="false" node1="1" node2="5"/>
                <iidm:switch id="LOAD_DISCONNECTOR_3" kind="DISCONNECTOR" retained="false" open="false" node1="5" node2="2"/>
                <iidm:switch id="LOAD_DISCONNECTOR_4" kind="DISCONNECTOR" retained="false" open="false" node1="5" node2="3"/>
            </iidm:nodeBreakerTopology>
            <iidm:load id="LOAD2" loadType="FICTITIOUS" p0="0.0" q0="0.0" node="1" p="0.0" q="0.0"/>
            <iidm:danglingLine id="DL2" p0="0.0" q0="0.0" r="0.5" x="6.0" g="0.0" b="0" node="0" p="0.0" q="0.0"/>
        </iidm:voltageLevel>
    </iidm:substation>
</iidm:network>
